67
Generated by Unitcell.write_xyz from STx_prot.xyz
O 0.4710000000000001 2.644 4.4300000000000015
O 1.107 7.099 2.3640000000000008
O 0.08099999999999996 5.4239999999999995 4.431000000000001
H 1.5619999999999998 6.313 2.170000000000001
Si 0.32600000000000007 2.5169999999999995 6.068000000000001
Si 0.258 5.483 6.069000000000001
O 0.010999999999999677 3.9919999999999995 6.721000000000001
Si 1.3039999999999998 0.8300000000000001 0.660000000000001
Si 1.236 3.796 0.6610000000000005
Si 3.9 5.337 0.660000000000001
O 4.9879999999999995 0.35499999999999954 0.21700000000000053
O 1.5499999999999998 2.3209999999999997 0.008000000000000895
O 2.392 4.8629999999999995 0.21700000000000053
O 5.0120000000000005 4.326 0.0
O 4.146 6.827999999999999 0.008000000000000895
Al 2.078 2.404 3.3630000000000004
Al 4.676 3.909 3.3660000000000005
Al 4.6739999999999995 6.911 3.3630000000000004
O 1.48 0.8889999999999993 2.298000000000001
O 2.677 0.9159999999999995 4.431000000000001
O 1.0899999999999999 3.6679999999999997 2.2990000000000013
O 3.703 2.5909999999999993 2.3640000000000008
O 3.0509999999999997 3.7219999999999995 4.365
O 4.076 5.397 2.298000000000001
O 3.0669999999999997 7.151999999999999 4.4300000000000015
H 0.0 0.0 4.559000000000001
H 4.1579999999999995 1.8049999999999997 2.170000000000001
H 2.596 4.507999999999999 4.559000000000001
Si 2.854 0.976 6.069000000000001
Si 2.9219999999999997 7.0249999999999995 6.068000000000001
O 1.742 1.987 6.729000000000001
O 4.361 1.4499999999999993 6.513000000000001
O 4.338 6.494999999999999 6.729000000000001
O 1.765 5.957 6.513000000000001
Si 3.832 8.302999999999999 0.6610000000000005
O 2.416 8.833 0.0
Al 2.08 8.417 3.3660000000000005
O 3.686 8.176 2.2990000000000013
O 0.45500000000000007 8.229 4.365
O 2.6069999999999998 8.5 6.721000000000001
O 1.2700000000000014 5.9499999999999975 17.9745
H 0.8100000000000005 6.669999999999998 17.4545
H 1.2300000000000004 6.149999999999998 18.9545
O 0.5899999999999999 8.369999999999997 22.244500000000002
H 1.3900000000000006 7.799999999999998 22.4545
H 0.10000000000000142 7.969999999999998 21.4745
O 3.460000000000001 7.089999999999998 21.1345
H 3.670000000000001 7.829999999999998 20.484499999999997
H 4.140000000000001 7.089999999999998 21.8645
O 3.710000000000001 4.869999999999997 17.0845
H 4.21 5.639999999999998 17.4845
H 2.7600000000000007 4.889999999999998 17.4045
O 1.87 4.719999999999998 21.694499999999998
H 1.9400000000000004 3.879999999999998 21.1445
H 2.49 5.4099999999999975 21.3345
O 3.13 7.509999999999998 13.5145
H 3.1900000000000004 6.579999999999998 13.8845
H 2.540000000000001 7.509999999999998 12.7145
O 1.58 2.3699999999999974 20.164499999999997
H 0.8800000000000008 1.8999999999999968 20.7045
H 2.17 1.6899999999999977 19.7345
O 3.0199999999999996 4.7399999999999975 14.394499999999999
H 2.0300000000000002 4.629999999999997 14.4145
H 3.3600000000000003 4.889999999999998 15.3245
O 2.0200000000000005 1.2299999999999986 14.074499999999999
H 1.790000000000001 1.759999999999998 13.2545
H 2.830000000000001 0.6699999999999982 13.8845
