640
Generated by Unitcell.write_xyz from STx_prot.xyz
O 0.4710000000000001 2.644 4.4300000000000015
O 1.107 7.099 2.3640000000000008
O 0.08099999999999996 5.4239999999999995 4.431000000000001
H 1.5619999999999998 6.313 2.170000000000001
Si 0.32600000000000007 2.5169999999999995 6.068000000000001
Si 0.258 5.483 6.069000000000001
O 0.010999999999999677 3.9919999999999995 6.721000000000001
Si 1.3039999999999998 0.8300000000000001 0.660000000000001
Si 1.236 3.796 0.6610000000000005
Si 3.9 5.337 0.660000000000001
O 4.9879999999999995 0.35499999999999954 0.21700000000000053
O 1.5499999999999998 2.3209999999999997 0.008000000000000895
O 2.392 4.8629999999999995 0.21700000000000053
O 5.0120000000000005 4.326 0.0
O 4.146 6.827999999999999 0.008000000000000895
Al 2.078 2.404 3.3630000000000004
Al 4.676 3.909 3.3660000000000005
Al 4.6739999999999995 6.911 3.3630000000000004
O 1.48 0.8889999999999993 2.298000000000001
O 2.677 0.9159999999999995 4.431000000000001
O 1.0899999999999999 3.6679999999999997 2.2990000000000013
O 3.703 2.5909999999999993 2.3640000000000008
O 3.0509999999999997 3.7219999999999995 4.365
O 4.076 5.397 2.298000000000001
O 3.0669999999999997 7.151999999999999 4.4300000000000015
H 0.0 0.0 4.559000000000001
H 4.1579999999999995 1.8049999999999997 2.170000000000001
H 2.596 4.507999999999999 4.559000000000001
Si 2.854 0.976 6.069000000000001
Si 2.9219999999999997 7.0249999999999995 6.068000000000001
O 1.742 1.987 6.729000000000001
O 4.361 1.4499999999999993 6.513000000000001
O 4.338 6.494999999999999 6.729000000000001
O 1.765 5.957 6.513000000000001
Si 3.832 8.302999999999999 0.6610000000000005
O 2.416 8.833 0.0
Al 2.08 8.417 3.3660000000000005
O 3.686 8.176 2.2990000000000013
O 0.45500000000000007 8.229 4.365
O 2.6069999999999998 8.5 6.721000000000001
O 0.4710000000000001 11.477 4.4300000000000015
O 1.107 15.932 2.3640000000000008
O 0.08099999999999996 14.257 4.431000000000001
H 1.5619999999999998 15.146 2.170000000000001
Si 0.32600000000000007 11.35 6.068000000000001
Si 0.258 14.315999999999999 6.069000000000001
O 0.010999999999999677 12.825 6.721000000000001
Si 1.3039999999999998 9.663 0.660000000000001
Si 1.236 12.629 0.6610000000000005
Si 3.9 14.17 0.660000000000001
O 4.9879999999999995 9.187999999999999 0.21700000000000053
O 1.5499999999999998 11.154 0.008000000000000895
O 2.392 13.696 0.21700000000000053
O 5.0120000000000005 13.158999999999999 0.0
O 4.146 15.661 0.008000000000000895
Al 2.078 11.237 3.3630000000000004
Al 4.676 12.742 3.3660000000000005
Al 4.6739999999999995 15.744 3.3630000000000004
O 1.48 9.722 2.298000000000001
O 2.677 9.748999999999999 4.431000000000001
O 1.0899999999999999 12.501 2.2990000000000013
O 3.703 11.424 2.3640000000000008
O 3.0509999999999997 12.555 4.365
O 4.076 14.23 2.298000000000001
O 3.0669999999999997 15.985 4.4300000000000015
H 0.0 8.833 4.559000000000001
H 4.1579999999999995 10.638 2.170000000000001
H 2.596 13.341 4.559000000000001
Si 2.854 9.809000000000001 6.069000000000001
Si 2.9219999999999997 15.858 6.068000000000001
O 1.742 10.82 6.729000000000001
O 4.361 10.283 6.513000000000001
O 4.338 15.328 6.729000000000001
O 1.765 14.79 6.513000000000001
Si 3.832 17.136 0.6610000000000005
O 2.416 17.666 0.0
Mg 2.08 17.25 3.3660000000000005
O 3.686 17.009 2.2990000000000013
O 0.45500000000000007 17.061999999999998 4.365
O 2.6069999999999998 17.333 6.721000000000001
O 0.4710000000000001 20.310000000000002 4.4300000000000015
O 1.107 24.765 2.3640000000000008
O 0.08099999999999996 23.09 4.431000000000001
H 1.5619999999999998 23.979 2.170000000000001
Si 0.32600000000000007 20.183 6.068000000000001
Si 0.258 23.149 6.069000000000001
O 0.010999999999999677 21.658 6.721000000000001
Si 1.3039999999999998 18.496000000000002 0.660000000000001
Si 1.236 21.462 0.6610000000000005
Si 3.9 23.003 0.660000000000001
O 4.9879999999999995 18.021 0.21700000000000053
O 1.5499999999999998 19.987000000000002 0.008000000000000895
O 2.392 22.529 0.21700000000000053
O 5.0120000000000005 21.992 0.0
O 4.146 24.494 0.008000000000000895
Al 2.078 20.07 3.3630000000000004
Al 4.676 21.575 3.3660000000000005
Al 4.6739999999999995 24.576999999999998 3.3630000000000004
O 1.48 18.555 2.298000000000001
O 2.677 18.582 4.431000000000001
O 1.0899999999999999 21.334 2.2990000000000013
O 3.703 20.256999999999998 2.3640000000000008
O 3.0509999999999997 21.387999999999998 4.365
O 4.076 23.063000000000002 2.298000000000001
O 3.0669999999999997 24.817999999999998 4.4300000000000015
H 0.0 17.666 4.559000000000001
H 4.1579999999999995 19.471 2.170000000000001
H 2.596 22.174 4.559000000000001
Si 2.854 18.642 6.069000000000001
Si 2.9219999999999997 24.691 6.068000000000001
O 1.742 19.653 6.729000000000001
O 4.361 19.116 6.513000000000001
O 4.338 24.161 6.729000000000001
O 1.765 23.623 6.513000000000001
Si 3.832 25.969 0.6610000000000005
O 2.416 26.499000000000002 0.0
Al 2.08 26.083 3.3660000000000005
O 3.686 25.842 2.2990000000000013
O 0.45500000000000007 25.895 4.365
O 2.6069999999999998 26.166 6.721000000000001
O 0.4710000000000001 29.143 4.4300000000000015
O 1.107 33.598 2.3640000000000008
O 0.08099999999999996 31.923000000000002 4.431000000000001
H 1.5619999999999998 32.812000000000005 2.170000000000001
Si 0.32600000000000007 29.016000000000002 6.068000000000001
Si 0.258 31.982000000000003 6.069000000000001
O 0.010999999999999677 30.491000000000003 6.721000000000001
Si 1.3039999999999998 27.329 0.660000000000001
Si 1.236 30.295 0.6610000000000005
Si 3.9 31.836000000000002 0.660000000000001
O 4.9879999999999995 26.854000000000003 0.21700000000000053
O 1.5499999999999998 28.82 0.008000000000000895
O 2.392 31.362000000000002 0.21700000000000053
O 5.0120000000000005 30.825000000000003 0.0
O 4.146 33.327 0.008000000000000895
Al 2.078 28.903000000000002 3.3630000000000004
Al 4.676 30.408 3.3660000000000005
Mg 4.6739999999999995 33.410000000000004 3.3630000000000004
O 1.48 27.388 2.298000000000001
O 2.677 27.415000000000003 4.431000000000001
O 1.0899999999999999 30.167 2.2990000000000013
O 3.703 29.090000000000003 2.3640000000000008
O 3.0509999999999997 30.221000000000004 4.365
O 4.076 31.896 2.298000000000001
O 3.0669999999999997 33.651 4.4300000000000015
H 0.0 26.499000000000002 4.559000000000001
H 4.1579999999999995 28.304000000000002 2.170000000000001
H 2.596 31.007 4.559000000000001
Si 2.854 27.475 6.069000000000001
Si 2.9219999999999997 33.524 6.068000000000001
O 1.742 28.486000000000004 6.729000000000001
O 4.361 27.949 6.513000000000001
O 4.338 32.994 6.729000000000001
O 1.765 32.456 6.513000000000001
Si 3.832 34.802 0.6610000000000005
O 2.416 35.332 0.0
Al 2.08 34.916000000000004 3.3660000000000005
O 3.686 34.675000000000004 2.2990000000000013
O 0.45500000000000007 34.728 4.365
O 2.6069999999999998 34.999 6.721000000000001
O 5.4830000000000005 2.644 4.4300000000000015
O 6.119000000000001 7.099 2.3640000000000008
O 5.093 5.4239999999999995 4.431000000000001
H 6.574 6.313 2.170000000000001
Si 5.338000000000001 2.5169999999999995 6.068000000000001
Si 5.2700000000000005 5.483 6.069000000000001
O 5.023 3.9919999999999995 6.721000000000001
Si 6.316000000000001 0.8300000000000001 0.660000000000001
Si 6.248 3.796 0.6610000000000005
Si 8.912 5.337 0.660000000000001
O 10.0 0.35499999999999954 0.21700000000000053
O 6.562 2.3209999999999997 0.008000000000000895
O 7.404 4.8629999999999995 0.21700000000000053
O 10.024000000000001 4.326 0.0
O 9.158000000000001 6.827999999999999 0.008000000000000895
Al 7.09 2.404 3.3630000000000004
Al 9.688 3.909 3.3660000000000005
Al 9.686 6.911 3.3630000000000004
O 6.492000000000001 0.8889999999999993 2.298000000000001
O 7.689 0.9159999999999995 4.431000000000001
O 6.102 3.6679999999999997 2.2990000000000013
O 8.715 2.5909999999999993 2.3640000000000008
O 8.063 3.7219999999999995 4.365
O 9.088000000000001 5.397 2.298000000000001
O 8.079 7.151999999999999 4.4300000000000015
H 5.0120000000000005 0.0 4.559000000000001
H 9.17 1.8049999999999997 2.170000000000001
H 7.6080000000000005 4.507999999999999 4.559000000000001
Si 7.8660000000000005 0.976 6.069000000000001
Si 7.934 7.0249999999999995 6.068000000000001
O 6.7540000000000004 1.987 6.729000000000001
O 9.373000000000001 1.4499999999999993 6.513000000000001
O 9.350000000000001 6.494999999999999 6.729000000000001
O 6.777 5.957 6.513000000000001
Si 8.844000000000001 8.302999999999999 0.6610000000000005
O 7.428000000000001 8.833 0.0
Al 7.0920000000000005 8.417 3.3660000000000005
O 8.698 8.176 2.2990000000000013
O 5.4670000000000005 8.229 4.365
O 7.619 8.5 6.721000000000001
O 5.4830000000000005 11.477 4.4300000000000015
O 6.119000000000001 15.932 2.3640000000000008
O 5.093 14.257 4.431000000000001
H 6.574 15.146 2.170000000000001
Si 5.338000000000001 11.35 6.068000000000001
Si 5.2700000000000005 14.315999999999999 6.069000000000001
O 5.023 12.825 6.721000000000001
Si 6.316000000000001 9.663 0.660000000000001
Si 6.248 12.629 0.6610000000000005
Si 8.912 14.17 0.660000000000001
O 10.0 9.187999999999999 0.21700000000000053
O 6.562 11.154 0.008000000000000895
O 7.404 13.696 0.21700000000000053
O 10.024000000000001 13.158999999999999 0.0
O 9.158000000000001 15.661 0.008000000000000895
Al 7.09 11.237 3.3630000000000004
Mg 9.688 12.742 3.3660000000000005
Al 9.686 15.744 3.3630000000000004
O 6.492000000000001 9.722 2.298000000000001
O 7.689 9.748999999999999 4.431000000000001
O 6.102 12.501 2.2990000000000013
O 8.715 11.424 2.3640000000000008
O 8.063 12.555 4.365
O 9.088000000000001 14.23 2.298000000000001
O 8.079 15.985 4.4300000000000015
H 5.0120000000000005 8.833 4.559000000000001
H 9.17 10.638 2.170000000000001
H 7.6080000000000005 13.341 4.559000000000001
Si 7.8660000000000005 9.809000000000001 6.069000000000001
Si 7.934 15.858 6.068000000000001
O 6.7540000000000004 10.82 6.729000000000001
O 9.373000000000001 10.283 6.513000000000001
O 9.350000000000001 15.328 6.729000000000001
O 6.777 14.79 6.513000000000001
Si 8.844000000000001 17.136 0.6610000000000005
O 7.428000000000001 17.666 0.0
Al 7.0920000000000005 17.25 3.3660000000000005
O 8.698 17.009 2.2990000000000013
O 5.4670000000000005 17.061999999999998 4.365
O 7.619 17.333 6.721000000000001
O 5.4830000000000005 20.310000000000002 4.4300000000000015
O 6.119000000000001 24.765 2.3640000000000008
O 5.093 23.09 4.431000000000001
H 6.574 23.979 2.170000000000001
Si 5.338000000000001 20.183 6.068000000000001
Si 5.2700000000000005 23.149 6.069000000000001
O 5.023 21.658 6.721000000000001
Si 6.316000000000001 18.496000000000002 0.660000000000001
Si 6.248 21.462 0.6610000000000005
Si 8.912 23.003 0.660000000000001
O 10.0 18.021 0.21700000000000053
O 6.562 19.987000000000002 0.008000000000000895
O 7.404 22.529 0.21700000000000053
O 10.024000000000001 21.992 0.0
O 9.158000000000001 24.494 0.008000000000000895
Al 7.09 20.07 3.3630000000000004
Al 9.688 21.575 3.3660000000000005
Al 9.686 24.576999999999998 3.3630000000000004
O 6.492000000000001 18.555 2.298000000000001
O 7.689 18.582 4.431000000000001
O 6.102 21.334 2.2990000000000013
O 8.715 20.256999999999998 2.3640000000000008
O 8.063 21.387999999999998 4.365
O 9.088000000000001 23.063000000000002 2.298000000000001
O 8.079 24.817999999999998 4.4300000000000015
H 5.0120000000000005 17.666 4.559000000000001
H 9.17 19.471 2.170000000000001
H 7.6080000000000005 22.174 4.559000000000001
Si 7.8660000000000005 18.642 6.069000000000001
Si 7.934 24.691 6.068000000000001
O 6.7540000000000004 19.653 6.729000000000001
O 9.373000000000001 19.116 6.513000000000001
O 9.350000000000001 24.161 6.729000000000001
O 6.777 23.623 6.513000000000001
Si 8.844000000000001 25.969 0.6610000000000005
O 7.428000000000001 26.499000000000002 0.0
Al 7.0920000000000005 26.083 3.3660000000000005
O 8.698 25.842 2.2990000000000013
O 5.4670000000000005 25.895 4.365
O 7.619 26.166 6.721000000000001
O 5.4830000000000005 29.143 4.4300000000000015
O 6.119000000000001 33.598 2.3640000000000008
O 5.093 31.923000000000002 4.431000000000001
H 6.574 32.812000000000005 2.170000000000001
Si 5.338000000000001 29.016000000000002 6.068000000000001
Si 5.2700000000000005 31.982000000000003 6.069000000000001
O 5.023 30.491000000000003 6.721000000000001
Si 6.316000000000001 27.329 0.660000000000001
Si 6.248 30.295 0.6610000000000005
Si 8.912 31.836000000000002 0.660000000000001
O 10.0 26.854000000000003 0.21700000000000053
O 6.562 28.82 0.008000000000000895
O 7.404 31.362000000000002 0.21700000000000053
O 10.024000000000001 30.825000000000003 0.0
O 9.158000000000001 33.327 0.008000000000000895
Mg 7.09 28.903000000000002 3.3630000000000004
Al 9.688 30.408 3.3660000000000005
Al 9.686 33.410000000000004 3.3630000000000004
O 6.492000000000001 27.388 2.298000000000001
O 7.689 27.415000000000003 4.431000000000001
O 6.102 30.167 2.2990000000000013
O 8.715 29.090000000000003 2.3640000000000008
O 8.063 30.221000000000004 4.365
O 9.088000000000001 31.896 2.298000000000001
O 8.079 33.651 4.4300000000000015
H 5.0120000000000005 26.499000000000002 4.559000000000001
H 9.17 28.304000000000002 2.170000000000001
H 7.6080000000000005 31.007 4.559000000000001
Si 7.8660000000000005 27.475 6.069000000000001
Si 7.934 33.524 6.068000000000001
O 6.7540000000000004 28.486000000000004 6.729000000000001
O 9.373000000000001 27.949 6.513000000000001
O 9.350000000000001 32.994 6.729000000000001
O 6.777 32.456 6.513000000000001
Si 8.844000000000001 34.802 0.6610000000000005
O 7.428000000000001 35.332 0.0
Al 7.0920000000000005 34.916000000000004 3.3660000000000005
O 8.698 34.675000000000004 2.2990000000000013
O 5.4670000000000005 34.728 4.365
O 7.619 34.999 6.721000000000001
O 10.495000000000001 2.644 4.4300000000000015
O 11.131 7.099 2.3640000000000008
O 10.105 5.4239999999999995 4.431000000000001
H 11.586 6.313 2.170000000000001
Si 10.350000000000001 2.5169999999999995 6.068000000000001
Si 10.282 5.483 6.069000000000001
O 10.035 3.9919999999999995 6.721000000000001
Si 11.328000000000001 0.8300000000000001 0.660000000000001
Si 11.260000000000002 3.796 0.6610000000000005
Si 13.924000000000001 5.337 0.660000000000001
O 15.012 0.35499999999999954 0.21700000000000053
O 11.574000000000002 2.3209999999999997 0.008000000000000895
O 12.416 4.8629999999999995 0.21700000000000053
O 15.036000000000001 4.326 0.0
O 14.170000000000002 6.827999999999999 0.008000000000000895
Al 12.102 2.404 3.3630000000000004
Al 14.700000000000001 3.909 3.3660000000000005
Al 14.698 6.911 3.3630000000000004
O 11.504000000000001 0.8889999999999993 2.298000000000001
O 12.701 0.9159999999999995 4.431000000000001
O 11.114 3.6679999999999997 2.2990000000000013
O 13.727 2.5909999999999993 2.3640000000000008
O 13.075000000000001 3.7219999999999995 4.365
O 14.100000000000001 5.397 2.298000000000001
O 13.091000000000001 7.151999999999999 4.4300000000000015
H 10.024000000000001 0.0 4.559000000000001
H 14.182 1.8049999999999997 2.170000000000001
H 12.620000000000001 4.507999999999999 4.559000000000001
Si 12.878 0.976 6.069000000000001
Si 12.946000000000002 7.0249999999999995 6.068000000000001
O 11.766000000000002 1.987 6.729000000000001
O 14.385000000000002 1.4499999999999993 6.513000000000001
O 14.362000000000002 6.494999999999999 6.729000000000001
O 11.789000000000001 5.957 6.513000000000001
Si 13.856000000000002 8.302999999999999 0.6610000000000005
O 12.440000000000001 8.833 0.0
Mg 12.104000000000001 8.417 3.3660000000000005
O 13.71 8.176 2.2990000000000013
O 10.479000000000001 8.229 4.365
O 12.631 8.5 6.721000000000001
O 10.495000000000001 11.477 4.4300000000000015
O 11.131 15.932 2.3640000000000008
O 10.105 14.257 4.431000000000001
H 11.586 15.146 2.170000000000001
Si 10.350000000000001 11.35 6.068000000000001
Si 10.282 14.315999999999999 6.069000000000001
O 10.035 12.825 6.721000000000001
Si 11.328000000000001 9.663 0.660000000000001
Si 11.260000000000002 12.629 0.6610000000000005
Si 13.924000000000001 14.17 0.660000000000001
O 15.012 9.187999999999999 0.21700000000000053
O 11.574000000000002 11.154 0.008000000000000895
O 12.416 13.696 0.21700000000000053
O 15.036000000000001 13.158999999999999 0.0
O 14.170000000000002 15.661 0.008000000000000895
Al 12.102 11.237 3.3630000000000004
Al 14.700000000000001 12.742 3.3660000000000005
Al 14.698 15.744 3.3630000000000004
O 11.504000000000001 9.722 2.298000000000001
O 12.701 9.748999999999999 4.431000000000001
O 11.114 12.501 2.2990000000000013
O 13.727 11.424 2.3640000000000008
O 13.075000000000001 12.555 4.365
O 14.100000000000001 14.23 2.298000000000001
O 13.091000000000001 15.985 4.4300000000000015
H 10.024000000000001 8.833 4.559000000000001
H 14.182 10.638 2.170000000000001
H 12.620000000000001 13.341 4.559000000000001
Si 12.878 9.809000000000001 6.069000000000001
Si 12.946000000000002 15.858 6.068000000000001
O 11.766000000000002 10.82 6.729000000000001
O 14.385000000000002 10.283 6.513000000000001
O 14.362000000000002 15.328 6.729000000000001
O 11.789000000000001 14.79 6.513000000000001
Si 13.856000000000002 17.136 0.6610000000000005
O 12.440000000000001 17.666 0.0
Al 12.104000000000001 17.25 3.3660000000000005
O 13.71 17.009 2.2990000000000013
O 10.479000000000001 17.061999999999998 4.365
O 12.631 17.333 6.721000000000001
O 10.495000000000001 20.310000000000002 4.4300000000000015
O 11.131 24.765 2.3640000000000008
O 10.105 23.09 4.431000000000001
H 11.586 23.979 2.170000000000001
Si 10.350000000000001 20.183 6.068000000000001
Si 10.282 23.149 6.069000000000001
O 10.035 21.658 6.721000000000001
Si 11.328000000000001 18.496000000000002 0.660000000000001
Si 11.260000000000002 21.462 0.6610000000000005
Si 13.924000000000001 23.003 0.660000000000001
O 15.012 18.021 0.21700000000000053
O 11.574000000000002 19.987000000000002 0.008000000000000895
O 12.416 22.529 0.21700000000000053
O 15.036000000000001 21.992 0.0
O 14.170000000000002 24.494 0.008000000000000895
Al 12.102 20.07 3.3630000000000004
Al 14.700000000000001 21.575 3.3660000000000005
Al 14.698 24.576999999999998 3.3630000000000004
O 11.504000000000001 18.555 2.298000000000001
O 12.701 18.582 4.431000000000001
O 11.114 21.334 2.2990000000000013
O 13.727 20.256999999999998 2.3640000000000008
O 13.075000000000001 21.387999999999998 4.365
O 14.100000000000001 23.063000000000002 2.298000000000001
O 13.091000000000001 24.817999999999998 4.4300000000000015
H 10.024000000000001 17.666 4.559000000000001
H 14.182 19.471 2.170000000000001
H 12.620000000000001 22.174 4.559000000000001
Si 12.878 18.642 6.069000000000001
Si 12.946000000000002 24.691 6.068000000000001
O 11.766000000000002 19.653 6.729000000000001
O 14.385000000000002 19.116 6.513000000000001
O 14.362000000000002 24.161 6.729000000000001
O 11.789000000000001 23.623 6.513000000000001
Si 13.856000000000002 25.969 0.6610000000000005
O 12.440000000000001 26.499000000000002 0.0
Mg 12.104000000000001 26.083 3.3660000000000005
O 13.71 25.842 2.2990000000000013
O 10.479000000000001 25.895 4.365
O 12.631 26.166 6.721000000000001
O 10.495000000000001 29.143 4.4300000000000015
O 11.131 33.598 2.3640000000000008
O 10.105 31.923000000000002 4.431000000000001
H 11.586 32.812000000000005 2.170000000000001
Si 10.350000000000001 29.016000000000002 6.068000000000001
Si 10.282 31.982000000000003 6.069000000000001
O 10.035 30.491000000000003 6.721000000000001
Si 11.328000000000001 27.329 0.660000000000001
Si 11.260000000000002 30.295 0.6610000000000005
Si 13.924000000000001 31.836000000000002 0.660000000000001
O 15.012 26.854000000000003 0.21700000000000053
O 11.574000000000002 28.82 0.008000000000000895
O 12.416 31.362000000000002 0.21700000000000053
O 15.036000000000001 30.825000000000003 0.0
O 14.170000000000002 33.327 0.008000000000000895
Al 12.102 28.903000000000002 3.3630000000000004
Al 14.700000000000001 30.408 3.3660000000000005
Al 14.698 33.410000000000004 3.3630000000000004
O 11.504000000000001 27.388 2.298000000000001
O 12.701 27.415000000000003 4.431000000000001
O 11.114 30.167 2.2990000000000013
O 13.727 29.090000000000003 2.3640000000000008
O 13.075000000000001 30.221000000000004 4.365
O 14.100000000000001 31.896 2.298000000000001
O 13.091000000000001 33.651 4.4300000000000015
H 10.024000000000001 26.499000000000002 4.559000000000001
H 14.182 28.304000000000002 2.170000000000001
H 12.620000000000001 31.007 4.559000000000001
Si 12.878 27.475 6.069000000000001
Si 12.946000000000002 33.524 6.068000000000001
O 11.766000000000002 28.486000000000004 6.729000000000001
O 14.385000000000002 27.949 6.513000000000001
O 14.362000000000002 32.994 6.729000000000001
O 11.789000000000001 32.456 6.513000000000001
Si 13.856000000000002 34.802 0.6610000000000005
O 12.440000000000001 35.332 0.0
Al 12.104000000000001 34.916000000000004 3.3660000000000005
O 13.71 34.675000000000004 2.2990000000000013
O 10.479000000000001 34.728 4.365
O 12.631 34.999 6.721000000000001
O 15.507000000000001 2.644 4.4300000000000015
O 16.143 7.099 2.3640000000000008
O 15.117 5.4239999999999995 4.431000000000001
H 16.598000000000003 6.313 2.170000000000001
Si 15.362000000000002 2.5169999999999995 6.068000000000001
Si 15.294 5.483 6.069000000000001
O 15.047 3.9919999999999995 6.721000000000001
Si 16.34 0.8300000000000001 0.660000000000001
Si 16.272000000000002 3.796 0.6610000000000005
Si 18.936 5.337 0.660000000000001
O 20.024 0.35499999999999954 0.21700000000000053
O 16.586000000000002 2.3209999999999997 0.008000000000000895
O 17.428 4.8629999999999995 0.21700000000000053
O 20.048000000000002 4.326 0.0
O 19.182000000000002 6.827999999999999 0.008000000000000895
Al 17.114 2.404 3.3630000000000004
Al 19.712000000000003 3.909 3.3660000000000005
Mg 19.71 6.911 3.3630000000000004
O 16.516000000000002 0.8889999999999993 2.298000000000001
O 17.713 0.9159999999999995 4.431000000000001
O 16.126 3.6679999999999997 2.2990000000000013
O 18.739 2.5909999999999993 2.3640000000000008
O 18.087 3.7219999999999995 4.365
O 19.112000000000002 5.397 2.298000000000001
O 18.103 7.151999999999999 4.4300000000000015
H 15.036000000000001 0.0 4.559000000000001
H 19.194000000000003 1.8049999999999997 2.170000000000001
H 17.632 4.507999999999999 4.559000000000001
Si 17.89 0.976 6.069000000000001
Si 17.958000000000002 7.0249999999999995 6.068000000000001
O 16.778000000000002 1.987 6.729000000000001
O 19.397000000000002 1.4499999999999993 6.513000000000001
O 19.374000000000002 6.494999999999999 6.729000000000001
O 16.801000000000002 5.957 6.513000000000001
Si 18.868000000000002 8.302999999999999 0.6610000000000005
O 17.452 8.833 0.0
Al 17.116 8.417 3.3660000000000005
O 18.722 8.176 2.2990000000000013
O 15.491000000000001 8.229 4.365
O 17.643 8.5 6.721000000000001
O 15.507000000000001 11.477 4.4300000000000015
O 16.143 15.932 2.3640000000000008
O 15.117 14.257 4.431000000000001
H 16.598000000000003 15.146 2.170000000000001
Si 15.362000000000002 11.35 6.068000000000001
Si 15.294 14.315999999999999 6.069000000000001
O 15.047 12.825 6.721000000000001
Si 16.34 9.663 0.660000000000001
Si 16.272000000000002 12.629 0.6610000000000005
Si 18.936 14.17 0.660000000000001
O 20.024 9.187999999999999 0.21700000000000053
O 16.586000000000002 11.154 0.008000000000000895
O 17.428 13.696 0.21700000000000053
O 20.048000000000002 13.158999999999999 0.0
O 19.182000000000002 15.661 0.008000000000000895
Al 17.114 11.237 3.3630000000000004
Al 19.712000000000003 12.742 3.3660000000000005
Al 19.71 15.744 3.3630000000000004
O 16.516000000000002 9.722 2.298000000000001
O 17.713 9.748999999999999 4.431000000000001
O 16.126 12.501 2.2990000000000013
O 18.739 11.424 2.3640000000000008
O 18.087 12.555 4.365
O 19.112000000000002 14.23 2.298000000000001
O 18.103 15.985 4.4300000000000015
H 15.036000000000001 8.833 4.559000000000001
H 19.194000000000003 10.638 2.170000000000001
H 17.632 13.341 4.559000000000001
Si 17.89 9.809000000000001 6.069000000000001
Si 17.958000000000002 15.858 6.068000000000001
O 16.778000000000002 10.82 6.729000000000001
O 19.397000000000002 10.283 6.513000000000001
O 19.374000000000002 15.328 6.729000000000001
O 16.801000000000002 14.79 6.513000000000001
Si 18.868000000000002 17.136 0.6610000000000005
O 17.452 17.666 0.0
Al 17.116 17.25 3.3660000000000005
O 18.722 17.009 2.2990000000000013
O 15.491000000000001 17.061999999999998 4.365
O 17.643 17.333 6.721000000000001
O 15.507000000000001 20.310000000000002 4.4300000000000015
O 16.143 24.765 2.3640000000000008
O 15.117 23.09 4.431000000000001
H 16.598000000000003 23.979 2.170000000000001
Si 15.362000000000002 20.183 6.068000000000001
Si 15.294 23.149 6.069000000000001
O 15.047 21.658 6.721000000000001
Si 16.34 18.496000000000002 0.660000000000001
Si 16.272000000000002 21.462 0.6610000000000005
Si 18.936 23.003 0.660000000000001
O 20.024 18.021 0.21700000000000053
O 16.586000000000002 19.987000000000002 0.008000000000000895
O 17.428 22.529 0.21700000000000053
O 20.048000000000002 21.992 0.0
O 19.182000000000002 24.494 0.008000000000000895
Al 17.114 20.07 3.3630000000000004
Mg 19.712000000000003 21.575 3.3660000000000005
Al 19.71 24.576999999999998 3.3630000000000004
O 16.516000000000002 18.555 2.298000000000001
O 17.713 18.582 4.431000000000001
O 16.126 21.334 2.2990000000000013
O 18.739 20.256999999999998 2.3640000000000008
O 18.087 21.387999999999998 4.365
O 19.112000000000002 23.063000000000002 2.298000000000001
O 18.103 24.817999999999998 4.4300000000000015
H 15.036000000000001 17.666 4.559000000000001
H 19.194000000000003 19.471 2.170000000000001
H 17.632 22.174 4.559000000000001
Si 17.89 18.642 6.069000000000001
Si 17.958000000000002 24.691 6.068000000000001
O 16.778000000000002 19.653 6.729000000000001
O 19.397000000000002 19.116 6.513000000000001
O 19.374000000000002 24.161 6.729000000000001
O 16.801000000000002 23.623 6.513000000000001
Si 18.868000000000002 25.969 0.6610000000000005
O 17.452 26.499000000000002 0.0
Al 17.116 26.083 3.3660000000000005
O 18.722 25.842 2.2990000000000013
O 15.491000000000001 25.895 4.365
O 17.643 26.166 6.721000000000001
O 15.507000000000001 29.143 4.4300000000000015
O 16.143 33.598 2.3640000000000008
O 15.117 31.923000000000002 4.431000000000001
H 16.598000000000003 32.812000000000005 2.170000000000001
Si 15.362000000000002 29.016000000000002 6.068000000000001
Si 15.294 31.982000000000003 6.069000000000001
O 15.047 30.491000000000003 6.721000000000001
Si 16.34 27.329 0.660000000000001
Si 16.272000000000002 30.295 0.6610000000000005
Si 18.936 31.836000000000002 0.660000000000001
O 20.024 26.854000000000003 0.21700000000000053
O 16.586000000000002 28.82 0.008000000000000895
O 17.428 31.362000000000002 0.21700000000000053
O 20.048000000000002 30.825000000000003 0.0
O 19.182000000000002 33.327 0.008000000000000895
Al 17.114 28.903000000000002 3.3630000000000004
Al 19.712000000000003 30.408 3.3660000000000005
Al 19.71 33.410000000000004 3.3630000000000004
O 16.516000000000002 27.388 2.298000000000001
O 17.713 27.415000000000003 4.431000000000001
O 16.126 30.167 2.2990000000000013
O 18.739 29.090000000000003 2.3640000000000008
O 18.087 30.221000000000004 4.365
O 19.112000000000002 31.896 2.298000000000001
O 18.103 33.651 4.4300000000000015
H 15.036000000000001 26.499000000000002 4.559000000000001
H 19.194000000000003 28.304000000000002 2.170000000000001
H 17.632 31.007 4.559000000000001
Si 17.89 27.475 6.069000000000001
Si 17.958000000000002 33.524 6.068000000000001
O 16.778000000000002 28.486000000000004 6.729000000000001
O 19.397000000000002 27.949 6.513000000000001
O 19.374000000000002 32.994 6.729000000000001
O 16.801000000000002 32.456 6.513000000000001
Si 18.868000000000002 34.802 0.6610000000000005
O 17.452 35.332 0.0
Al 17.116 34.916000000000004 3.3660000000000005
O 18.722 34.675000000000004 2.2990000000000013
O 15.491000000000001 34.728 4.365
O 17.643 34.999 6.721000000000001
