298
Generated by Unitcell.write_xyz from STx_prot.xyz
O 0.4710000000000001 2.644 4.4300000000000015
O 1.107 7.099 2.3640000000000008
O 0.08099999999999996 5.4239999999999995 4.431000000000001
H 1.5619999999999998 6.313 2.170000000000001
Si 0.32600000000000007 2.5169999999999995 6.068000000000001
Si 0.258 5.483 6.069000000000001
O 0.010999999999999677 3.9919999999999995 6.721000000000001
Si 1.3039999999999998 0.8300000000000001 0.660000000000001
Si 1.236 3.796 0.6610000000000005
Si 3.9 5.337 0.660000000000001
O 4.9879999999999995 0.35499999999999954 0.21700000000000053
O 1.5499999999999998 2.3209999999999997 0.008000000000000895
O 2.392 4.8629999999999995 0.21700000000000053
O 5.0120000000000005 4.326 0.0
O 4.146 6.827999999999999 0.008000000000000895
Al 2.078 2.404 3.3630000000000004
Al 4.676 3.909 3.3660000000000005
Al 4.6739999999999995 6.911 3.3630000000000004
O 1.48 0.8889999999999993 2.298000000000001
O 2.677 0.9159999999999995 4.431000000000001
O 1.0899999999999999 3.6679999999999997 2.2990000000000013
O 3.703 2.5909999999999993 2.3640000000000008
O 3.0509999999999997 3.7219999999999995 4.365
O 4.076 5.397 2.298000000000001
O 3.0669999999999997 7.151999999999999 4.4300000000000015
H 0.0 0.0 4.559000000000001
H 4.1579999999999995 1.8049999999999997 2.170000000000001
H 2.596 4.507999999999999 4.559000000000001
Si 2.854 0.976 6.069000000000001
Si 2.9219999999999997 7.0249999999999995 6.068000000000001
O 1.742 1.987 6.729000000000001
O 4.361 1.4499999999999993 6.513000000000001
O 4.338 6.494999999999999 6.729000000000001
O 1.765 5.957 6.513000000000001
Si 3.832 8.302999999999999 0.6610000000000005
O 2.416 8.833 0.0
Al 2.08 8.417 3.3660000000000005
O 3.686 8.176 2.2990000000000013
O 0.45500000000000007 8.229 4.365
O 2.6069999999999998 8.5 6.721000000000001
O 0.4710000000000001 11.477 4.4300000000000015
O 1.107 15.932 2.3640000000000008
O 0.08099999999999996 14.257 4.431000000000001
H 1.5619999999999998 15.146 2.170000000000001
Si 0.32600000000000007 11.35 6.068000000000001
Si 0.258 14.315999999999999 6.069000000000001
O 0.010999999999999677 12.825 6.721000000000001
Si 1.3039999999999998 9.663 0.660000000000001
Si 1.236 12.629 0.6610000000000005
Si 3.9 14.17 0.660000000000001
O 4.9879999999999995 9.187999999999999 0.21700000000000053
O 1.5499999999999998 11.154 0.008000000000000895
O 2.392 13.696 0.21700000000000053
O 5.0120000000000005 13.158999999999999 0.0
O 4.146 15.661 0.008000000000000895
Al 2.078 11.237 3.3630000000000004
Al 4.676 12.742 3.3660000000000005
Al 4.6739999999999995 15.744 3.3630000000000004
O 1.48 9.722 2.298000000000001
O 2.677 9.748999999999999 4.431000000000001
O 1.0899999999999999 12.501 2.2990000000000013
O 3.703 11.424 2.3640000000000008
O 3.0509999999999997 12.555 4.365
O 4.076 14.23 2.298000000000001
O 3.0669999999999997 15.985 4.4300000000000015
H 0.0 8.833 4.559000000000001
H 4.1579999999999995 10.638 2.170000000000001
H 2.596 13.341 4.559000000000001
Si 2.854 9.809000000000001 6.069000000000001
Si 2.9219999999999997 15.858 6.068000000000001
O 1.742 10.82 6.729000000000001
O 4.361 10.283 6.513000000000001
O 4.338 15.328 6.729000000000001
O 1.765 14.79 6.513000000000001
Si 3.832 17.136 0.6610000000000005
O 2.416 17.666 0.0
Mg 2.08 17.25 3.3660000000000005
O 3.686 17.009 2.2990000000000013
O 0.45500000000000007 17.061999999999998 4.365
O 2.6069999999999998 17.333 6.721000000000001
O 5.4830000000000005 2.644 4.4300000000000015
O 6.119000000000001 7.099 2.3640000000000008
O 5.093 5.4239999999999995 4.431000000000001
H 6.574 6.313 2.170000000000001
Si 5.338000000000001 2.5169999999999995 6.068000000000001
Si 5.2700000000000005 5.483 6.069000000000001
O 5.023 3.9919999999999995 6.721000000000001
Si 6.316000000000001 0.8300000000000001 0.660000000000001
Si 6.248 3.796 0.6610000000000005
Si 8.912 5.337 0.660000000000001
O 10.0 0.35499999999999954 0.21700000000000053
O 6.562 2.3209999999999997 0.008000000000000895
O 7.404 4.8629999999999995 0.21700000000000053
O 10.024000000000001 4.326 0.0
O 9.158000000000001 6.827999999999999 0.008000000000000895
Al 7.09 2.404 3.3630000000000004
Al 9.688 3.909 3.3660000000000005
Al 9.686 6.911 3.3630000000000004
O 6.492000000000001 0.8889999999999993 2.298000000000001
O 7.689 0.9159999999999995 4.431000000000001
O 6.102 3.6679999999999997 2.2990000000000013
O 8.715 2.5909999999999993 2.3640000000000008
O 8.063 3.7219999999999995 4.365
O 9.088000000000001 5.397 2.298000000000001
O 8.079 7.151999999999999 4.4300000000000015
H 5.0120000000000005 0.0 4.559000000000001
H 9.17 1.8049999999999997 2.170000000000001
H 7.6080000000000005 4.507999999999999 4.559000000000001
Si 7.8660000000000005 0.976 6.069000000000001
Si 7.934 7.0249999999999995 6.068000000000001
O 6.7540000000000004 1.987 6.729000000000001
O 9.373000000000001 1.4499999999999993 6.513000000000001
O 9.350000000000001 6.494999999999999 6.729000000000001
O 6.777 5.957 6.513000000000001
Si 8.844000000000001 8.302999999999999 0.6610000000000005
O 7.428000000000001 8.833 0.0
Al 7.0920000000000005 8.417 3.3660000000000005
O 8.698 8.176 2.2990000000000013
O 5.4670000000000005 8.229 4.365
O 7.619 8.5 6.721000000000001
O 5.4830000000000005 11.477 4.4300000000000015
O 6.119000000000001 15.932 2.3640000000000008
O 5.093 14.257 4.431000000000001
H 6.574 15.146 2.170000000000001
Si 5.338000000000001 11.35 6.068000000000001
Si 5.2700000000000005 14.315999999999999 6.069000000000001
O 5.023 12.825 6.721000000000001
Si 6.316000000000001 9.663 0.660000000000001
Si 6.248 12.629 0.6610000000000005
Si 8.912 14.17 0.660000000000001
O 10.0 9.187999999999999 0.21700000000000053
O 6.562 11.154 0.008000000000000895
O 7.404 13.696 0.21700000000000053
O 10.024000000000001 13.158999999999999 0.0
O 9.158000000000001 15.661 0.008000000000000895
Al 7.09 11.237 3.3630000000000004
Al 9.688 12.742 3.3660000000000005
Mg 9.686 15.744 3.3630000000000004
O 6.492000000000001 9.722 2.298000000000001
O 7.689 9.748999999999999 4.431000000000001
O 6.102 12.501 2.2990000000000013
O 8.715 11.424 2.3640000000000008
O 8.063 12.555 4.365
O 9.088000000000001 14.23 2.298000000000001
O 8.079 15.985 4.4300000000000015
H 5.0120000000000005 8.833 4.559000000000001
H 9.17 10.638 2.170000000000001
H 7.6080000000000005 13.341 4.559000000000001
Si 7.8660000000000005 9.809000000000001 6.069000000000001
Si 7.934 15.858 6.068000000000001
O 6.7540000000000004 10.82 6.729000000000001
O 9.373000000000001 10.283 6.513000000000001
O 9.350000000000001 15.328 6.729000000000001
O 6.777 14.79 6.513000000000001
Si 8.844000000000001 17.136 0.6610000000000005
O 7.428000000000001 17.666 0.0
Al 7.0920000000000005 17.25 3.3660000000000005
O 8.698 17.009 2.2990000000000013
O 5.4670000000000005 17.061999999999998 4.365
O 7.619 17.333 6.721000000000001
O 10.0 13.689999999999998 19.674500000000002
H 9.18 14.119999999999997 20.0645
H 9.72 12.959999999999997 19.0445
O 6.74 6.499999999999998 20.234499999999997
H 6.170000000000001 6.339999999999998 21.0445
H 6.15 6.599999999999998 19.4345
O 8.620000000000001 16.189999999999998 21.764499999999998
H 8.950000000000001 17.129999999999995 21.764499999999998
H 9.13 15.649999999999999 22.424500000000002
O 8.74 16.08 15.5145
H 8.620000000000001 15.949999999999998 14.5245
H 8.440000000000001 15.269999999999998 16.0045
O 7.220000000000001 14.479999999999997 20.5745
H 6.48 14.939999999999998 20.0745
H 7.73 15.159999999999998 21.1045
O 7.6000000000000005 2.469999999999998 17.5245
H 8.46 2.4899999999999984 17.0045
H 7.74 2.9399999999999986 18.4045
O 6.44 1.379999999999999 15.1045
H 5.8100000000000005 0.6199999999999992 15.2345
H 6.920000000000001 1.5599999999999987 15.9645
O 7.86 8.529999999999998 18.9245
H 7.450000000000001 8.299999999999997 18.0445
H 7.680000000000001 7.789999999999997 19.5745
O 6.950000000000001 8.009999999999998 16.2745
H 7.84 8.469999999999999 16.3045
H 6.74 7.769999999999998 15.3245
O 1.6000000000000014 17.019999999999996 17.4945
H 1.8600000000000003 16.979999999999997 18.4545
H 0.75 16.509999999999998 17.354499999999998
O 4.8100000000000005 2.8299999999999983 18.6545
H 5.640000000000001 2.5399999999999983 18.1745
H 4.32 3.4999999999999982 18.0945
O 1.2700000000000014 5.9499999999999975 17.9745
H 0.8100000000000005 6.669999999999998 17.4545
H 1.2300000000000004 6.149999999999998 18.9545
O 9.14 2.049999999999997 21.9345
H 8.52 1.8999999999999968 21.174500000000002
H 8.620000000000001 2.1599999999999975 22.7845
O 2.3000000000000007 9.149999999999999 15.5745
H 1.6999999999999993 8.529999999999998 16.0745
H 2.610000000000001 8.709999999999997 14.724499999999999
O 7.51 5.159999999999998 14.0145
H 7.19 6.099999999999998 13.9145
H 6.75 4.529999999999998 13.894499999999999
O 5.19 11.079999999999998 17.4645
H 4.950000000000001 10.709999999999997 16.5645
H 6.180000000000001 11.239999999999998 17.5045
O 0.5899999999999999 8.369999999999997 22.244500000000002
H 1.3900000000000006 7.799999999999998 22.4545
H 0.10000000000000142 7.969999999999998 21.4745
O 5.53 3.269999999999998 13.6145
H 5.8500000000000005 2.509999999999998 14.1845
H 4.61 3.5399999999999974 13.9145
O 0.5400000000000009 12.369999999999997 18.0045
H 0.0600000000000005 12.779999999999998 17.2245
H 1.5300000000000011 12.349999999999998 17.8145
O 3.460000000000001 7.089999999999998 21.1345
H 3.670000000000001 7.829999999999998 20.484499999999997
H 4.140000000000001 7.089999999999998 21.8645
O 3.9000000000000004 9.359999999999998 19.1145
H 4.34 9.999999999999998 18.4745
H 3.4000000000000004 9.879999999999997 19.8145
O 1.5100000000000016 15.499999999999998 13.3645
H 1.0999999999999996 16.32 12.974499999999999
H 2.1500000000000004 15.759999999999998 14.0945
O 1.3600000000000012 10.399999999999999 20.7345
H 0.6400000000000006 10.449999999999998 20.0445
H 1.120000000000001 9.709999999999997 21.4245
O 5.48 3.1199999999999983 21.874499999999998
H 4.930000000000001 2.2799999999999976 21.804499999999997
H 5.740000000000001 3.4099999999999975 20.9545
O 7.83 4.189999999999999 19.7745
H 8.82 4.269999999999999 19.9145
H 7.380000000000001 5.029999999999998 20.0845
O 5.090000000000001 15.759999999999998 13.984499999999999
H 4.550000000000001 15.549999999999999 14.7945
H 6.0 15.349999999999998 14.074499999999999
O 3.710000000000001 4.869999999999997 17.0845
H 4.21 5.639999999999998 17.4845
H 2.7600000000000007 4.889999999999998 17.4045
O 7.01 16.4 17.9245
H 6.700000000000001 17.009999999999998 18.6545
H 7.51 16.919999999999998 17.2345
O 3.2800000000000002 15.259999999999998 15.9545
H 3.41 14.419999999999998 16.4945
H 2.99 15.999999999999998 16.5545
O 7.41 13.679999999999998 16.944499999999998
H 7.430000000000001 12.919999999999998 17.5845
H 6.930000000000001 14.45 17.3445
O 6.59 12.749999999999998 14.4545
H 5.98 11.999999999999998 14.6845
H 6.8100000000000005 13.269999999999998 15.2845
O 1.87 4.719999999999998 21.694499999999998
H 1.9400000000000004 3.879999999999998 21.1445
H 2.49 5.4099999999999975 21.3345
O 9.89 4.649999999999998 15.2045
H 8.96 4.859999999999998 14.894499999999999
H 9.99 3.6599999999999984 15.334499999999998
O 8.450000000000001 11.359999999999998 18.4345
H 9.18 11.189999999999998 17.764499999999998
H 8.14 10.489999999999998 18.8145
O 5.07 7.119999999999998 17.9745
H 5.740000000000001 7.2399999999999975 17.2345
H 4.67 8.009999999999998 18.2045
O 3.13 7.509999999999998 13.5145
H 3.1900000000000004 6.579999999999998 13.8845
H 2.540000000000001 7.509999999999998 12.7145
O 6.23 7.459999999999998 13.644499999999999
H 5.3100000000000005 7.829999999999998 13.7145
H 6.61 7.659999999999998 12.744499999999999
O 1.58 2.3699999999999974 20.164499999999997
H 0.8800000000000008 1.8999999999999968 20.7045
H 2.17 1.6899999999999977 19.7345
O 3.0199999999999996 4.7399999999999975 14.394499999999999
H 2.0300000000000002 4.629999999999997 14.4145
H 3.3600000000000003 4.889999999999998 15.3245
O 3.4400000000000004 13.259999999999998 17.694499999999998
H 4.090000000000001 12.519999999999998 17.5845
H 3.6400000000000006 13.759999999999998 18.5345
O 2.0200000000000005 1.2299999999999986 14.074499999999999
H 1.790000000000001 1.759999999999998 13.2545
H 2.830000000000001 0.6699999999999982 13.8845
O 9.8 7.079999999999998 21.7145
H 9.09 6.959999999999998 21.014499999999998
H 9.81 6.289999999999998 22.3145
O 4.710000000000001 10.529999999999998 14.8845
H 5.0600000000000005 10.119999999999997 14.0445
H 3.8100000000000005 10.149999999999999 15.084499999999998
O 4.1899999999999995 14.54 20.1145
H 3.6000000000000005 15.339999999999998 20.1545
H 4.34 14.189999999999998 21.0445
O 7.12 12.219999999999999 22.0245
H 6.280000000000001 12.209999999999997 22.564500000000002
H 7.140000000000001 13.049999999999997 21.4645
O 9.6 11.759999999999998 23.9045
H 9.99 10.909999999999998 23.544499999999996
H 8.620000000000001 11.779999999999998 23.714499999999997
